src/examples/case14_twoarea/two_area_02pulim_1_2/results/res_branch_2.csv
branch,from_bus,to_bus,X,B,G,Bfr,Bto,p_from,p_to,q_from,q_to,p_loss,q_loss,s_from,s_to,rate_a,ang_deg,angmin,angmax
7,4,5,0.07018333333333335,-13.750861129582134,2.615635185180549,0.0,0.0,0.05792026464381991,-0.057827095740631565,0.05361815804587124,-0.053128352488659394,9.316890318834814e-5,0.000489805557211849,0.07892822010309217,0.07852766926348578,0.2,0.21607472115844678,-60.0001403060998,60.0001403060998
4,2,4,0.2938666666666667,-3.274849999726149,0.6475778135801491,0.028333333333333335,0.028333333333333335,0.14659762998462725,-0.1450049523394272,0.03988167893274733,-0.08393386442441342,0.0015926776452000468,-0.04405218549166609,0.15192568391027378,0.16754500828188038,0.2,2.4446181007183503,-60.0001403060998,60.0001403060998
2,1,5,0.37173333333333336,-2.634446441553089,0.3829065851070123,0.041,0.041,0.17592872618565425,-0.1738407023374497,0.037897741055093206,-0.09889095109086896,0.0020880238482045566,-0.06099321003577575,0.17996431722534834,0.2000000249920845,0.2,3.8234691991520604,-60.0001403060998,60.0001403060998
3,2,3,0.32995,-2.9705137433791546,0.423047252012082,0.0365,0.0365,0.12996562169870912,-0.12891725169295168,0.030447565568665458,-0.09025374204797411,0.001048370005757443,-0.05980617647930865,0.13348451997362898,0.15737025048504594,0.2,2.4819342742322026,-60.0001403060998,60.0001403060998
5,2,5,0.28980000000000006,-3.32235273589815,0.6528916090731525,0.028833333333333336,0.028833333333333336,0.1625375475694749,-0.16054619415947669,0.0544096515080369,-0.09704173717894936,0.0019913534099982033,-0.04263208567091246,0.17140263868192152,0.18759578676985436,0.2,2.6606928218767973,-60.0001403060998,60.0001403060998
6,3,4,0.28505,-3.324436966625986,0.7815138436541214,0.010666666666666668,0.010666666666666668,-0.001482738321248763,0.0014833257136756318,-0.007159696522742282,-0.011893037448068123,5.87392426868805e-7,-0.019052733970810407,0.007311618646173194,0.01198518230624808,0.2,-0.03731617351385271,-60.0001403060998,60.0001403060998
1,1,2,0.09861666666666669,-9.763222778777191,1.918653954227162,0.044000000000000004,0.044000000000000004,0.19637660364807813,-0.19559321043261385,-0.037897751049014126,-0.04175291645205655,0.0007833932154642786,-0.07965066750107068,0.200000024987317,0.20000002499897138,0.2,1.1627763772752633,-60.0001403060998,60.0001403060998
